src/examples/nordicfault3/base_unconstrPS/fault_4032_4044_1_original_10.m
function mpc = fault_4032_4044_1_original_10
%FAULT_4032_4044_1_ORIGINAL_10

%% MATPOWER Case Format : Version 2
mpc.version = '2';

%%-----  Power Flow Data  -----%%
%% system MVA base
mpc.baseMVA = 100;

%% bus data
%	bus_i	type	Pd	Qd	Gs	Bs	area	Vm	Va	baseKV	zone	Vmax	Vmin
mpc.bus = [
	1	1	586.773235	141.73811	0	0	2	0.97678	-153.9453	20	1	1.1	0.9;
	2	1	328.104988	70.1864941	0	0	2	0.99544	-139.4149	20	1	1.1	0.9;
	3	1	254.775599	80.4663534	0	0	2	0.97738	-149.165	20	1	1.1	0.9;
	4	1	816.395408	238.036017	0	0	2	0.97155	-139.7168	20	1	1.1	0.9;
	5	1	703.462049	181.753884	0	0	2	0.9732	-143.4856	20	1	1.1	0.9;
	11	1	199.709432	68.6000389	0	0	1	1.00111	-70.0701	20	1	1.1	0.9;
	12	1	299.989103	83.7933909	0	0	1	0.99747	-66.583	20	1	1.1	0.9;
	13	1	100.050383	34.4348853	0	0	1	0.99623	-62.3071	20	1	1.1	0.9;
	22	1	278.377645	78.9764801	0	0	1	0.98946	-82.2548	20	1	1.1	0.9;
	31	1	98.2266795	23.8313272	0	0	1	0.98638	-99.7871	20	1	1.1	0.9;
	32	1	199.352544	39.3440189	0	0	1	0.99453	-87.0895	20	1	1.1	0.9;
	41	1	522.565813	123.052459	0	0	2	0.96456	-121.5457	20	1	1.1	0.9;
	42	1	386.74752	119.098037	0	0	2	0.96225	-126.3923	20	1	1.1	0.9;
	43	1	876.292979	241.363801	0	0	2	0.97491	-134.2204	20	1	1.1	0.9;
	46	1	685.129955	202.897568	0	0	2	0.97781	-134.8123	20	1	1.1	0.9;
	47	1	98.6717655	42.8394881	0	0	2	0.98175	-130.1331	20	1	1.1	0.9;
	51	1	790.966696	252.402351	0	0	2	0.98649	-142.6916	20	1	1.1	0.9;
	61	1	492.329583	118.770784	0	0	3	0.97962	-126.5844	20	1	1.1	0.9;
	62	1	297.909426	82.6363251	0	0	3	0.99324	-123.4812	20	1	1.1	0.9;
	63	1	588.985008	263.689962	0	0	3	0.99748	-119.7965	20	1	1.1	0.9;
	71	1	300.078509	83.8441337	0	0	4	1.00302	-68.5785	20	1	1.1	0.9;
	72	1	2001.75904	396.797487	0	0	4	0.99828	-67.6927	20	1	1.1	0.9;
	1011	1	0	0	0	0	1	1.06024	-67.2661	130	1	1.1	0.9;
	1012	1	0	0	0	0	1	1.06335	-63.746	130	1	1.1	0.9;
	1013	1	0	0	0	0	1	1.05534	-59.4707	130	1	1.1	0.9;
	1014	1	0	0	0	0	1	1.06201	-56.4942	130	1	1.1	0.9;
	1021	1	0	0	0	0	1	1.03218	-58.0407	130	1	1.1	0.9;
	1022	1	0	0	0	50	1	1.04517	-79.3893	130	1	1.1	0.9;
	1041	1	0	0	0	250	2	0.99014	-151.0472	130	1	1.1	0.9;
	1042	1	0	0	0	0	2	1.00869	-136.293	130	1	1.1	0.9;
	1043	1	0	0	0	200	2	1.00686	-145.9063	130	1	1.1	0.9;
	1044	1	0	0	0	200	2	0.97838	-136.6705	130	1	1.1	0.9;
	1045	1	0	0	0	200	2	0.98789	-140.4897	130	1	1.1	0.9;
	2031	1	0	0	0	0	1	1.0097	-96.9323	220	1	1.1	0.9;
	2032	1	0	0	0	0	1	1.06601	-84.2332	220	1	1.1	0.9;
	4011	1	0	0	0	0	1	1.02043	-68.1476	400	1	1.1	0.9;
	4012	1	0	0	0	-100	1	1.02253	-66.1493	400	1	1.1	0.9;
	4021	1	0	0	0	0	1	1.02681	-97.0879	400	1	1.1	0.9;
	4022	1	0	0	0	0	1	0.98654	-81.1914	400	1	1.1	0.9;
	4031	1	0	0	0	0	1	1.01452	-99.8015	400	1	1.1	0.9;
	4032	1	0	0	0	0	1	1.02359	-103.2469	400	1	1.1	0.9;
	4041	1	0	0	0	200	2	1.01677	-118.6046	400	1	1.1	0.9;
	4042	1	0	0	0	0	2	1.00838	-123.4508	400	1	1.1	0.9;
	4043	1	0	0	0	200	2	1.00972	-131.3289	400	1	1.1	0.9;
	4044	1	0	0	0	0	2	1.0087	-133.0995	400	1	1.1	0.9;
	4045	1	0	0	0	0	2	1.02901	-137.6283	400	1	1.1	0.9;
	4046	1	0	0	0	100	2	1.01377	-131.9259	400	1	1.1	0.9;
	4047	1	0	0	0	0	2	1.04502	-127.2664	400	1	1.1	0.9;
	4051	1	0	0	0	100	2	1.05392	-139.8298	400	1	1.1	0.9;
	4061	1	0	0	0	0	3	1.02281	-123.6834	400	1	1.1	0.9;
	4062	1	0	0	0	0	3	1.04869	-120.6396	400	1	1.1	0.9;
	4063	1	0	0	0	0	3	1.05174	-116.9876	400	1	1.1	0.9;
	4071	1	0	0	0	-400	4	1.04872	-65.7715	400	1	1.1	0.9;
	4072	1	0	0	0	0	4	1.05993	-64.8462	400	1	1.1	0.9;
	50001	2	0	0	0	0	1	1.07002	-58.1266	15	1	1.1	0.9;
	50002	2	0	0	0	0	1	1.05799	-55.6745	15	1	1.1	0.9;
	50003	2	0	0	0	0	1	1.06106	-50.5467	15	1	1.1	0.9;
	50004	2	0	0	0	0	1	1.03618	-52.7701	15	1	1.1	0.9;
	50005	2	0	0	0	0	1	1.03132	-72.7548	15	1	1.1	0.9;
	50006	2	0	0	0	0	2	1.01131	-128.2942	15	1	1.1	0.9;
	50007	2	0	0	0	0	2	1.01643	-137.9745	15	1	1.1	0.9;
	50008	2	0	0	0	0	1	1.05232	-77.2016	15	1	1.1	0.9;
	50009	2	0	0	0	0	1	1.00027	-62.2916	15	1	1.1	0.9;
	50010	2	0	0	0	0	1	1.01725	-59.6918	15	1	1.1	0.9;
	50011	2	0	0	0	0	1	1.02173	-89.9803	15	1	1.1	0.9;
	50012	2	0	0	0	0	1	1.02094	-92.1457	15	1	1.1	0.9;
	50013	2	0	0	0	0	2	1.01186	-118.6061	15	1	1.1	0.9;
	50014	2	0	0	0	0	2	1.04574	-115.7611	15	1	1.1	0.9;
	50015	2	0	0	0	0	2	1.04792	-119.8603	15	1	1.1	0.9;
	50016	2	0	0	0	0	2	1.05563	-132.8822	15	1	1.1	0.9;
	50017	2	0	0	0	0	3	1.01208	-113.1373	15	1	1.1	0.9;
	50018	2	0	0	0	0	3	1.03372	-109.6613	15	1	1.1	0.9;
	50019	2	0	0	0	0	4	1.03117	-60.7879	15	1	1.1	0.9;
	50020	3	0	0	0	0	4	1.01954	-60.8938	15	1	1.1	0.9;
];

%% generator data
%	bus	Pg	Qg	Qmax	Qmin	Vg	mBase	status	Pmax	Pmin	Pc1	Pc2	Qc1min	Qc1max	Qc2min	Qc2max	ramp_agc	ramp_10	ramp_30	ramp_q	apf	mu_Pmax	mu_Pmin	mu_Qmax	mu_Qmin
mpc.gen = [
	50001	594.225	67.227	249.8	-249.8	1.0684	800	1	760	0	0	0	0	0	0	0	0	0	0	0	0	0.0000	0.0000	0.0000	0.0000;
	50002	295.716	21.017	187.35	-187.35	1.0565	600	1	570	0	0	0	0	0	0	0	0	0	0	0	0	0.0000	0.0000	0.0000	0.0000;
	50003	544.912	23.597	218.575	-218.575	1.0595	700	1	665	0	0	0	0	0	0	0	0	0	0	0	0	0.0000	0.0000	0.0000	0.0000;
	50004	392.999	34.68	187.35	-187.35	1.0339	600	1	570	0	0	0	0	0	0	0	0	0	0	0	0	0.0000	0.0000	0.0000	0.0000;
	50005	197.685	73.187	78.062	-78.062	1.0294	250	1	237.5	0	0	0	0	0	0	0	0	0	0	0	0	0.0000	0.0000	0.0000	0.0000;
	50006	360.522	161.809	174.356	-124.9	1.0084	400	1	9999	0	0	0	0	0	0	0	0	0	0	0	0	0.0000	0.0000	0.0000	0.0000;
	50007	179.337	90.377	87.178	-62.45	1.0141	200	1	9999	0	0	0	0	0	0	0	0	0	0	0	0	0.0000	0.0000	0.0000	0.0000;
	50008	741.153	266.551	265.412	-265.412	1.0498	850	1	807.5	0	0	0	0	0	0	0	0	0	0	0	0	0.0000	0.0000	0.0000	0.0000;
	50009	661.239	223.433	312.25	-312.25	0.9988	1000	1	950	0	0	0	0	0	0	0	0	0	0	0	0	0.0000	0.0000	0.0000	0.0000;
	50010	594.234	269.051	249.8	-249.8	1.0157	800	1	760	0	0	0	0	0	0	0	0	0	0	0	0	0.0000	0.0000	0.0000	0.0000;
	50011	247.268	104.877	93.675	-93.675	1.0211	300	1	285	0	0	0	0	0	0	0	0	0	0	0	0	0.0000	0.0000	0.0000	0.0000;
	50012	306.65	150.906	109.287	-109.287	1.02	350	1	332.5	0	0	0	0	0	0	0	0	0	0	0	0	0.0000	0.0000	0.0000	0.0000;
	50013	-0.068	132.07	300	-200	1.017	300	1	0	0	0	0	0	0	0	0	0	0	0	0	0	0.0000	0.0000	0.0000	0.0000;
	50014	627.138	458.768	305.123	-218.575	1.0454	700	1	9999	0	0	0	0	0	0	0	0	0	0	0	0	0.0000	0.0000	0.0000	0.0000;
	50015	1075.548	511.038	523.068	-374.7	1.0455	1200	1	9999	0	0	0	0	0	0	0	0	0	0	0	0	0.0000	0.0000	0.0000	0.0000;
	50016	598.151	291.966	305.123	-218.575	1.0531	700	1	9999	0	0	0	0	0	0	0	0	0	0	0	0	0.0000	0.0000	0.0000	0.0000;
	50017	527.936	88.577	261.534	-187.35	1.0092	600	1	9999	0	0	0	0	0	0	0	0	0	0	0	0	0.0000	0.0000	0.0000	0.0000;
	50018	1056.356	332.769	523.068	-374.7	1.0307	1200	1	9999	0	0	0	0	0	0	0	0	0	0	0	0	0.0000	0.0000	0.0000	0.0000;
	50019	298.243	124.309	156.125	-156.125	1.03	500	1	475	0	0	0	0	0	0	0	0	0	0	0	0	0.0000	0.0000	0.0000	0.0000;
	50020	2128.315	381.697	1405.125	-1405.125	1.0185	4500	1	4275	0	0	0	0	0	0	0	0	0	0	0	0	0.0000	0.0000	0.0000	0.0000;
];

%% branch data
%	fbus	tbus	r	x	b	rateA	rateB	rateC	ratio	angle	status	angmin	angmax
mpc.branch = [
	1011	1013	0.01	0.07	0.0138	350	350	350	0	0	1	-40	40;
	1011	1013	0.01	0.07	0.0138	350	350	350	0	0	1	-40	40;
	1012	1014	0.0140237	0.09	0.01805	350	350	350	0	0	1	-40	40;
	1012	1014	0.0140237	0.09	0.01805	350	350	350	0	0	1	-40	40;
	1013	1014	0.00698225	0.05	0.01009	350	350	350	0	0	1	-40	40;
	1013	1014	0.00698225	0.05	0.01009	350	350	350	0	0	1	-40	40;
	1021	1022	0.03	0.2	0.03026	350	350	350	0	0	1	-40	40;
	1021	1022	0.03	0.2	0.03026	350	350	350	0	0	1	-40	40;
	1041	1043	0.01	0.06	0.01221	350	350	350	0	0	1	-40	40;
	1041	1043	0.01	0.06	0.01221	350	350	350	0	0	1	-40	40;
	1041	1045	0.0149704	0.12	0.02495	350	350	350	0	0	1	-40	40;
	1041	1045	0.0149704	0.12	0.02495	350	350	350	0	0	1	-40	40;
	1042	1044	0.0379882	0.28	0.05999	350	350	350	0	0	1	-40	40;
	1042	1044	0.0379882	0.28	0.05999	350	350	350	0	0	1	-40	40;
	1042	1045	0.05	0.3	0.05999	350	350	350	0	0	1	-40	40;
	1043	1044	0.01	0.08	0.01593	350	350	350	0	0	1	-40	40;
	1043	1044	0.01	0.08	0.01593	350	350	350	0	0	1	-40	40;
	2031	2032	0.0120041	0.09	0.01521	500	500	500	0	0	1	-40	40;
	2031	2032	0.0120041	0.09	0.01521	500	500	500	0	0	1	-40	40;
	4011	4012	0.001	0.008	0.20106	1400	1400	1400	0	0	1	-40	40;
	4011	4021	0.006	0.06	1.79949	1400	1400	1400	0	0	1	-40	40;
	4011	4022	0.004	0.04	1.20134	1400	1400	1400	0	0	1	-40	40;
	4011	4071	0.005	0.045	1.4024	1400	1400	1400	0	0	1	-40	40;
	4012	4022	0.004	0.035	1.05056	1400	1400	1400	0	0	1	-40	40;
	4012	4071	0.005	0.05	1.49792	1400	1400	1400	0	0	1	-40	40;
	4021	4032	0.004	0.04	1.20134	1400	1400	1400	0	0	1	-40	40;
	4021	4042	0.01	0.1	3.00086	1400	1400	1400	0	0	1	-40	40;
	4022	4031	0.004	0.04	1.20134	1400	1400	1400	0	0	1	-40	40;
	4022	4031	0.004	0.04	1.20134	1400	1400	1400	0	0	1	-40	40;
	4031	4032	0.001	0.01	0.30159	1400	1400	1400	0	0	1	-40	40;
	4031	4041	0.006	0.08	2.39766	1400	1400	1400	0	0	1	-40	40;
	4031	4041	0.006	0.08	2.39766	1400	1400	1400	0	0	1	-40	40;
	4032	4042	0.01	0.066667	2.00058	1400	1400	1400	0	0	1	-40	40;
	4032	4044	0.006	0.08	2.39766	1400	1400	1400	0	0	0	-40	40;
	4041	4044	0.003	0.03	0.89974	1400	1400	1400	0	0	1	-40	40;
	4041	4061	0.006	0.045	1.30189	1400	1400	1400	0	0	1	-40	40;
	4042	4043	0.002	0.015	0.49763	1400	1400	1400	0	0	1	-40	40;
	4042	4044	0.002	0.02	0.59818	1400	1400	1400	0	0	1	-40	40;
	4043	4044	0.001	0.01	0.30159	1400	1400	1400	0	0	1	-40	40;
	4043	4046	0.001	0.01	0.30159	1400	1400	1400	0	0	1	-40	40;
	4043	4047	0.002	0.02	0.59818	1400	1400	1400	0	0	1	-40	40;
	4044	4045	0.002	0.02	0.59818	1400	1400	1400	0	0	1	-40	40;
	4044	4045	0.002	0.02	0.59818	1400	1400	1400	0	0	1	-40	40;
	4045	4051	0.004	0.04	1.20134	1400	1400	1400	0	0	1	-40	40;
	4045	4051	0.004	0.04	1.20134	1400	1400	1400	0	0	1	-40	40;
	4045	4062	0.011	0.08	2.39766	1400	1400	1400	0	0	1	-40	40;
	4046	4047	0.001	0.015	0.49763	1400	1400	1400	0	0	1	-40	40;
	4061	4062	0.002	0.02	0.59818	1400	1400	1400	0	0	1	-40	40;
	4062	4063	0.003	0.03	0.89974	1400	1400	1400	0	0	1	-40	40;
	4062	4063	0.003	0.03	0.89974	1400	1400	1400	0	0	1	-40	40;
	4071	4072	0.003	0.03	3.00086	1400	1400	1400	0	0	1	-40	40;
	4071	4072	0.003	0.03	3.00086	1400	1400	1400	0	0	1	-40	40;
	1041	1	0	0.00833333333	0	1200	1200	1200	1	0	1	-40	40;
	1042	2	0	0.0166666667	0	600	600	600	1	0	1	-40	40;
	1043	3	0	0.0217391304	0	460	460	460	1.01	0	1	-40	40;
	1044	4	0	0.00625	0	1600	1600	1600	0.99	0	1	-40	40;
	1045	5	0	0.00714285714	0	1400	1400	1400	1	0	1	-40	40;
	1011	11	0	0.025	0	400	400	400	1.04	0	1	-40	40;
	1012	12	0	0.0166666667	0	600	600	600	1.05	0	1	-40	40;
	1013	13	0	0.05	0	200	200	200	1.04	0	1	-40	40;
	1022	22	0	0.0178571429	0	560	560	560	1.04	0	1	-40	40;
	2031	31	0	0.05	0	200	200	200	1.01	0	1	-40	40;
	2032	32	0	0.025	0	400	400	400	1.06	0	1	-40	40;
	4041	41	0	0.00925925926	0	1080	1080	1080	1.04	0	1	-40	40;
	4042	42	0	0.0125	0	800	800	800	1.03	0	1	-40	40;
	4043	43	0	0.00555555556	0	1800	1800	1800	1.02	0	1	-40	40;
	4046	46	0	0.00714285714	0	1400	1400	1400	1.02	0	1	-40	40;
	4047	47	0	0.05	0	200	200	200	1.04	0	1	-40	40;
	4051	51	0	0.00625	0	1600	1600	1600	1.05	0	1	-40	40;
	4061	61	0	0.01	0	1000	1000	1000	1.03	0	1	-40	40;
	4062	62	0	0.0166666667	0	600	600	600	1.04	0	1	-40	40;
	4063	63	0	0.00847457627	0	1180	1180	1180	1.03	0	1	-40	40;
	4071	71	0	0.0166666667	0	600	600	600	1.03	0	1	-40	40;
	4072	72	0	0.0025	0	4000	4000	4000	1.05	0	1	-40	40;
	4011	1011	0	0.008	0	1250	1250	1250	0.95	0	1	-40	40;
	4012	1012	0	0.008	0	1250	1250	1250	0.95	0	1	-40	40;
	1012	50001	0	0.01875	0	800	800	800	1	0	1	-40	40;
	1013	50002	0	0.025	0	600	600	600	1	0	1	-40	40;
	1014	50003	0	0.0214285714	0	700	700	700	1	0	1	-40	40;
	1021	50004	0	0.025	0	600	600	600	1	0	1	-40	40;
	4022	1022	0	0.01200048	0	833.3	833.3	833.3	0.93	0	1	-40	40;
	1022	50005	0	0.06	0	250	250	250	1.05	0	1	-40	40;
	1042	50006	0	0.0375	0	9999	9999	9999	1.05	0	1	-40	40;
	1043	50007	0	0.075	0	9999	9999	9999	1.05	0	1	-40	40;
	4044	1044	0	0.01	0	1000	1000	1000	1.03	0	1	-40	40;
	4044	1044	0	0.01	0	1000	1000	1000	1.03	0	1	-40	40;
	4045	1045	0	0.01	0	1000	1000	1000	1.04	0	1	-40	40;
	4045	1045	0	0.01	0	1000	1000	1000	1.04	0	1	-40	40;
	4031	2031	0	0.01200048	0	833.3	833.3	833.3	1	0	1	-40	40;
	2032	50008	0	0.0176470588	0	850	850	850	1.05	0	1	-40	40;
	4011	50009	0	0.015	0	1000	1000	1000	1.05	0	1	-40	40;
	4012	50010	0	0.01875	0	800	800	800	1.05	0	1	-40	40;
	4021	50011	0	0.05	0	300	300	300	1.05	0	1	-40	40;
	4031	50012	0	0.0428571429	0	350	350	350	1.05	0	1	-40	40;
	4041	50013	0	0.0333333333	0	300	300	300	1.05	0	1	-40	40;
	4042	50014	0	0.0214285714	0	9999	9999	9999	1.05	0	1	-40	40;
	4047	50015	0	0.0125	0	9999	9999	9999	1.05	0	1	-40	40;
	4051	50016	0	0.0214285714	0	9999	9999	9999	1.05	0	1	-40	40;
	4062	50017	0	0.025	0	9999	9999	9999	1.05	0	1	-40	40;
	4063	50018	0	0.0125	0	9999	9999	9999	1.05	0	1	-40	40;
	4071	50019	0	0.03	0	500	500	500	1.05	0	1	-40	40;
	4072	50020	0	0.00333333333	0	4500	4500	4500	1.05	0	1	-40	40;
];

%%-----  OPF Data  -----%%
%% generator cost data
%	1	startup	shutdown	n	x1	y1	...	xn	yn
%	2	startup	shutdown	n	c(n-1)	...	c0
mpc.gencost = [
	2	0	0	3	0.001	10	0;
	2	0	0	3	0.001	10	0;
	2	0	0	3	0.001	10	0;
	2	0	0	3	0.001	10	0;
	2	0	0	3	0.001	10	0;
	2	0	0	3	0.1	1000	0;
	2	0	0	3	0.1	1000	0;
  2	0	0	3	0.001	10	0;
  2	0	0	3	0.001	10	0;
  2	0	0	3	0.001	10	0;
  2	0	0	3	0.001	10	0;
  2	0	0	3	0.001	10	0;
  2	0	0	3	0.1	1000	0;
  2	0	0	3	0.1	1000	0;
  2	0	0	3	0.1	1000	0;
  2	0	0	3	0.1	1000	0;
  2	0	0	3	0.1	1000	0;
  2	0	0	3	0.1	1000	0;
  2	0	0	3	0.001	10	0;
  2	0	0	3	0.001	10	0;
];

%% bus names
mpc.bus_name = {
	'LOAD 1041   ';
	'LOAD 1042   ';
	'LOAD 1043   ';
	'LOAD 1044   ';
	'LOAD 1043   ';
	'LOAD 1011   ';
	'LOAD 1012   ';
	'LOAD 1013   ';
	'LOAD 1022   ';
	'LOAD 2031   ';
	'LOAD 2032   ';
	'LOAD 4041   ';
	'LOAD 4042   ';
	'LOAD 4043   ';
	'LOAD 4046   ';
	'LOAD 4047   ';
	'LOAD 4051   ';
	'LOAD 4061   ';
	'LOAD 4062   ';
	'LOAD 4063   ';
	'LOAD 4071   ';
	'LOAD 4072   ';
	'1011        ';
	'1012        ';
	'1013        ';
	'1014        ';
	'1021        ';
	'1022        ';
	'1041        ';
	'1042        ';
	'1043        ';
	'1044        ';
	'1045        ';
	'2031        ';
	'2032        ';
	'4011        ';
	'4012        ';
	'4021        ';
	'4022        ';
	'4031        ';
	'4032        ';
	'4041        ';
	'4042        ';
	'4043        ';
	'4044        ';
	'4045        ';
	'4046        ';
	'4047        ';
	'4051        ';
	'4061        ';
	'4062        ';
	'4063        ';
	'4071        ';
	'4072        ';
	'G1          ';
	'G2          ';
	'G3          ';
	'G4          ';
	'G5          ';
	'G6          ';
	'G7          ';
	'G8          ';
	'G9          ';
	'G10         ';
	'G11         ';
	'G12         ';
	'G13         ';
	'G14         ';
	'G15         ';
	'G16         ';
	'G17         ';
	'G18         ';
	'G19         ';
	'G20         ';
};
